/*--------------------------------*- C++ -*----------------------------------*\
| =========                 |                                                 |
| \\      /  F ield         | OpenFOAM: The Open Source CFD Toolbox           |
|  \\    /   O peration     | Version:  v2212                                 |
|   \\  /    A nd           | Web:      www.OpenFOAM.com                      |
|    \\/     M anipulation  |                                                 |
\*---------------------------------------------------------------------------*/
FoamFile
{
    version     2.0;
    format      ascii;
    class       dictionary;
    location    "system";
    object      fvSchemes;
}
// * * * * * * * * * * * * * * * * * * * * * * * * * * * * * * * * * * * * * //

ddtSchemes
{
    default                 CrankNicolson 0.9;
}

gradSchemes
{
    default                 Gauss linear;
}

divSchemes
{
    default                 none;

    div(rhoPhi,U)           Gauss limitedLinearV 1;
    "div\(phi,alpha.*\)"    Gauss vanLeer;
    "div\(phir,alpha.*\)"   Gauss linear;

    "div\(Yiphir,alpha.*\)" Gauss linear;
    "div\(phi,.*\.gas.*\)"  Gauss vanLeer;

    div(((rho*nuEff)*dev2(T(grad(U))))) Gauss linear;

    div(phi,T)              Gauss limitedLinear 1;
}

laplacianSchemes
{
    default                 Gauss linear corrected;
}

interpolationSchemes
{
    default                 linear;
}

snGradSchemes
{
    default                 corrected;
}

fluxRequired
{
    default  no;
    p_rgh;
    "alpha.*";
}

// ************************************************************************* //
