/*--------------------------------*- C++ -*----------------------------------*\
  =========                 |
  \\      /  F ield         | OpenFOAM: The Open Source CFD Toolbox
   \\    /   O peration     | Website:  https://openfoam.org
    \\  /    A nd           | Version:  11
     \\/     M anipulation  |
\*---------------------------------------------------------------------------*/
FoamFile
{
    format      ascii;
    class       volVectorField;
    location    "0";
    object      U;
}
// ************************************************************************* //

#include "$FOAM_CASE/../parameters"

dimensions          [0 1 -1 0 0 0 0];

internalField       uniform (0 0 0);

boundaryField
{
    #includeEtc "caseDicts/setConstraintTypes"

    inlet
    {
        type                flowRateInletVelocity;
        profile             turbulentBL;
        massFlowRate        $mdot_air;
        rhoInlet            $rho_air;
    }
    outlet
    {
        type                inletOutlet;
        inletValue          uniform (0 0 0);
    }
    walls
    {
        type                fixedValue;
        value               uniform (0 0 0);
    }
}

// ************************************************************************* //
