/*--------------------------------*- C++ -*----------------------------------*\
  =========                 |
  \\      /  F ield         | OpenFOAM: The Open Source CFD Toolbox
   \\    /   O peration     | Website:  https://openfoam.org
    \\  /    A nd           | Version:  11
     \\/     M anipulation  |
\*---------------------------------------------------------------------------*/
FoamFile
{
    format          ascii;
    class           dictionary;
    location        "system";
    object          controlDict;
}
// * * * * * * * * * * * * * * * * * * * * * * * * * * * * * * * * * * * * * //

application     foamRun;

solver          multicomponentFluid;

startFrom       latestTime;

startTime       0;

stopAt          endTime;

endTime         1500;

deltaT          1;

writeControl    timeStep;

writeInterval   50;

purgeWrite      3;

writeFormat     ascii;

writePrecision  10;

writeCompression off;

timeFormat      fixed;

timePrecision   0;

runTimeModifiable yes;

functions
{
    #includeFunc residuals(p, U, k, epsilon, h, C7H16)

    #includeFunc patchFlowRate(patch=inlet, phi)

    #includeFunc patchFlowRate(patch=outlet, phi)

    #include "$FOAM_CASE/../functions/massAvgOutletPressureVelocity"
    #include "$FOAM_CASE/../functions/massAvgOutletTemperature"
    #include "$FOAM_CASE/../functions/massAvgOutletFuelVapor"
    #include "$FOAM_CASE/../functions/massAvgOutletOxidant"
}

// ************************************************************************* //
