/*--------------------------------*- C++ -*----------------------------------*\
  =========                 |
  \\      /  F ield         | OpenFOAM: The Open Source CFD Toolbox
   \\    /   O peration     | Website:  https://openfoam.org
    \\  /    A nd           | Version:  11
     \\/     M anipulation  |
\*---------------------------------------------------------------------------*/
FoamFile
{
    format      ascii;
    class       dictionary;
    object      decomposeParDict;
}
// * * * * * * * * * * * * * * * * * * * * * * * * * * * * * * * * * * * * * //

numberOfSubdomains  2;

method              hierarchical;

hierarchicalCoeffs
{
    order           xyz;
    n               (2 1 1);
    
    // n               (1 1 1); // 1
    // n               (2 1 1); // 2
    // n               (2 2 1); // 4
    // n               (4 2 1); // 8
    // n               (4 4 1); // 16
    // n               (4 4 2); // 32
}

// ************************************************************************* //
