/*--------------------------------*- C++ -*----------------------------------*\
  =========                 |
  \\      /  F ield         | OpenFOAM: The Open Source CFD Toolbox
   \\    /   O peration     | Website:  https://openfoam.org
    \\  /    A nd           | Version:  11
     \\/     M anipulation  |
\*---------------------------------------------------------------------------*/
FoamFile
{
    format      ascii;
    class       volScalarField;
    location    "0";
    object      p;
}
// ************************************************************************* //

#include "$FOAM_CASE/../parameters"

dimensions      [1 -1 -2 0 0 0 0];

internalField   uniform $P_air;

boundaryField
{
    #includeEtc "caseDicts/setConstraintTypes"

    inlet
    {
        type            zeroGradient;
    }
    outlet
    {
        type            totalPressure;
        p0              $internalField;
    }
    walls
    {
        type            zeroGradient;
    }
}

// ************************************************************************* //
