/*--------------------------------*- C++ -*----------------------------------*\
  =========                 |
  \\      /  F ield         | OpenFOAM: The Open Source CFD Toolbox
   \\    /   O peration     | Website:  https://openfoam.org
    \\  /    A nd           | Version:  11
     \\/     M anipulation  |
\*---------------------------------------------------------------------------*/
FoamFile
{
    format      ascii;
    class       dictionary;
    location    "system";
    object      controlDict;
}
// * * * * * * * * * * * * * * * * * * * * * * * * * * * * * * * * * * * * * //

application        foamRun;

solver             incompressibleDenseParticleFluid;

startFrom          latestTime;

startTime          0;

stopAt             endTime;

endTime            10.0;

deltaT             1.0e-04;

writeControl       adjustableRunTime;

writeInterval      0.25;

purgeWrite         0;

writeFormat        binary;

writePrecision     12;

writeCompression   off;

timeFormat         scientific;

timePrecision      8;

runTimeModifiable  true;

adjustTimeStep     yes;

maxCo              1.0;

maxDeltaT          0.01;

functions
{
    #includeFunc   residuals;

    #includeFunc patchFlowRate(patch=outlet, cloud:massFlux)
}

OptimisationSwitches
{
    fileHandler collated;
}

// ************************************************************************* //
