! generator: yaml2ck
! cantera-version: 3.1.0
! date: Sat, 29 Mar 2025 15:41:09 +0100
! input-files: ['graf-2007.yaml']
!
! Kinetics mechanism by Graf, 2007

ELEM
C H N
END

SPECIES
C2H2  H2  CH4  C2H4  C4H4  C6H6  C  N2
END

THERMO ALL
200.000   1000.000  5000.000

C2H2                    C   2H   2          G300.000   5000.000  1000.000      1
 4.43677000E+00 5.37603900E-03-1.91281600E-06 3.28637900E-10-2.15670900E-14    2
 2.56676600E+04-2.80033800E+00 2.01356200E+00 1.51904460E-02-1.61631890E-05    3
 9.07899200E-09-1.91274600E-12 2.61244400E+04 8.80537800E+00                   4
H2                      H   2               G300.000   5000.000  1000.000      1
 2.99142300E+00 7.00064400E-04-5.63382800E-08-9.23157800E-12 1.58275190E-15    2
-8.35034000E+02-1.35511010E+00 3.29812400E+00 8.24944100E-04-8.14301500E-07    3
-9.47543400E-11 4.13487200E-13-1.01252090E+03-3.29409400E+00                   4
CH4                     C   1H   4          G300.000   5000.000  1000.000      1
 1.68347800E+00 1.02372360E-02-3.87512800E-06 6.78558500E-10-4.50342300E-14    2
-1.00807870E+04 9.62339500E+00 7.78741500E-01 1.74766800E-02-2.78340900E-05    3
 3.04970800E-08-1.22393070E-11-9.82522900E+03 1.37221950E+01                   4
C2H4                    C   2H   4          G300.000   5000.000  1000.000      1
 3.52841800E+00 1.14851850E-02-4.41838500E-06 7.84460000E-10-5.26684800E-14    2
 4.42828800E+03 2.23038900E+00-8.61488000E-01 2.79616200E-02-3.38867700E-05    3
 2.78515200E-08-9.73787900E-12 5.57304600E+03 2.42114800E+01                   4
C4H4                    C   4H   4          G300.000   4000.000  1000.000      1
 1.06977730E+01 6.98201400E-03-6.56774700E-07-3.88451700E-10 7.20094600E-14    2
 3.03480300E+04-3.12843000E+01 3.23389300E+00 1.86563400E-02 1.27032050E-06    3
-9.41009600E-09 2.95611000E-12 3.30109700E+04 9.92267600E+00                   4
C6H6                    C   6H   6          G300.000   5000.000  1000.000      1
 1.29107400E+01 1.72329600E-02-5.02421000E-06 5.89349700E-10-1.94752100E-14    2
 3.66451100E+03-5.00269900E+01-3.13801200E+00 4.72310300E-02-2.96220700E-06    3
-3.26281900E-08 1.71869100E-11 8.89003100E+03 3.65757300E+01                   4
C                 L11/88C   1               G200.000   3500.000  1000.000      1
 2.49266888E+00 4.79889284E-05-7.24335020E-08 3.74291029E-11-4.87277893E-15    2
 8.54512953E+04 4.80150373E+00 2.55423955E+00-3.21537724E-04 7.33792245E-07    3
-7.32234889E-10 2.66521446E-13 8.54438832E+04 4.53130848E+00                   4
N2                      N   2               G300.000   5000.000  1000.000      1
 2.92664000E+00 1.48797680E-03-5.68476000E-07 1.00970380E-10-6.75335100E-15    2
-9.22797700E+02 5.98052800E+00 3.29867700E+00 1.40824040E-03-3.96322200E-06    3
 5.64151500E-09-2.44485400E-12-1.02089990E+03 3.95037200E+00                   4
END

REACTIONS CAL/MOLE MOLE
C2H2 + H2 => C2H4              635993.4991282074 0.0 24617.590822179733
  FORD /C2H2 1.000/
  FORD /H2 0.360/
C2H4 => C2H2 + H2              37999.99999999999 0.0 47801.14722753346
  FORD /C2H4 0.500/
C2H2 + 3 H2 => 2 CH4           368.23751886535325 0.0 35850.86042065009
  FORD /C2H2 0.350/
  FORD /H2 0.220/
2 CH4 => C2H2 + 3 H2           156.49427384045853 0.0 46606.11854684512
  FORD /CH4 0.210/
2 C2H2 => C4H4                 477728604.66419727 0.0 28847.992351816443
  FORD /C2H2 1.600/
C4H4 => 2 C2H2                 31622776601683.797 0.0 80114.72275334608
  FORD /C4H4 0.750/
C2H2 + C4H4 => C6H6            452139557.67172414 0.0 15415.86998087954
  FORD /C2H2 1.300/
  FORD /C4H4 0.600/
C2H2 (+H2) => 2 C + H2 (+H2)   1381537537330.267 0.0 39435.9464627151
  HIGH /76752.08540723707 0.0 39435.9464627151/
  FORD /C2H2 1.900/
C6H6 (+H2) => 6 C + 3 H2 (+H2) 31.6227766016838 0.0 17925.430210325045
  HIGH /1.4373989364401727e-06 0.0 17925.430210325045/
  FORD /C6H6 0.750/
END

TRANSPORT
C2H2               1   209.000     4.100     0.000     0.000     2.500
H2                 1    38.000     2.920     0.000     0.790   280.000
CH4                2   141.400     3.746     0.000     2.600    13.000
C2H4               2   280.800     3.971     0.000     0.000     1.500
C4H4               1   357.000     5.180     0.000     0.000     1.000
C6H6               2   412.300     5.349     0.000     0.000     1.000
C                  0    71.400     3.298     0.000     0.000     0.000 ! *
N2                 1    97.530     3.621     0.000     1.760     4.000
END
