/*--------------------------------*- C++ -*----------------------------------*\
  =========                 |
  \\      /  F ield         | OpenFOAM: The Open Source CFD Toolbox
   \\    /   O peration     | Website:  https://openfoam.org
    \\  /    A nd           | Version:  11
     \\/     M anipulation  |
\*---------------------------------------------------------------------------*/
FoamFile
{
    format      ascii;
    class       dictionary;
    object      fvSchemes;
}
// * * * * * * * * * * * * * * * * * * * * * * * * * * * * * * * * * * * * * //

ddtSchemes
{
    default         Euler;
}

gradSchemes
{
    default         cellLimited Gauss linear 1;
}

divSchemes
{
    default                         none;
    div(alphaPhi.air,U.air)         Gauss linearUpwind grad(U);
    div(alphaPhi.air,k.air)         Gauss upwind;
    div(alphaPhi.air,epsilon.air)   Gauss upwind;
    div(alphaPhi.air,omega.air)     Gauss upwind;
    div(phiGByA,cloud:alpha)        Gauss linear;
    div(((alpha.air*nuEff.air)*dev2(T(grad(U.air))))) Gauss linear;
}

laplacianSchemes
{
     default         Gauss linear limited 1;
}

interpolationSchemes
{
    default         linear;
}

snGradSchemes
{
    default         limited 1;
}

wallDist
{
    method          meshWave;
}

// ************************************************************************* //
