/*--------------------------------*- C++ -*----------------------------------*\
  =========                 |
  \\      /  F ield         | OpenFOAM: The Open Source CFD Toolbox
   \\    /   O peration     | Website:  https://openfoam.org
    \\  /    A nd           | Version:  11
     \\/     M anipulation  |
\*---------------------------------------------------------------------------*/
FoamFile
{
    format      ascii;
    class       dictionary;
    location    "system";
    object      fvSolution;
}
// * * * * * * * * * * * * * * * * * * * * * * * * * * * * * * * * * * * * * //

solvers
{
    alpha.air
    {
        max             0.9;
    }

    p
    {
        solver          GAMG;
        tolerance       1e-06;
        relTol          0.01;
        smoother        GaussSeidel;
    }

    pFinal
    {
        solver          GAMG;
        tolerance       1e-06;
        relTol          0;
        smoother        GaussSeidel;
    }

    "(U|k|epsilon|omega).air"
    {
        solver          smoothSolver;
        smoother        symGaussSeidel;
        tolerance       1e-05;
        relTol          0.1;
    }

    "(U|k|epsilon|omega).airFinal"
    {
        solver          smoothSolver;
        smoother        symGaussSeidel;
        tolerance       1e-05;
        relTol          0.1;
    }

    "cloud:alpha.*"
    {
        //!!! Use with packingModel implicit
        solver          GAMG;
        tolerance       1e-06;
        relTol          0.0;
        smoother        GaussSeidel;
        minIter         3;

        // Avoid unconverged iterations but it will slow down the computation
        maxIter        1000;
    }
}

PIMPLE
{
    nOuterCorrectors         1;
    nCorrectors              2;
    momentumPredictor        yes;
    nNonOrthogonalCorrectors 0;
    pRefCell                 0;
    pRefValue                0;

        residualControl
        {
            p               1.0e-05;
            U.air           1.0e-04;
            k.air           1.0e-05;
            epsilon.air     1.0e-05;
            omega.air       1.0e-05;
        }
}

// ************************************************************************* //
