/*--------------------------------*- C++ -*----------------------------------*\
  =========                 |
  \\      /  F ield         | OpenFOAM: The Open Source CFD Toolbox
   \\    /   O peration     | Website:  https://openfoam.org
    \\  /    A nd           | Version:  11
     \\/     M anipulation  |
\*---------------------------------------------------------------------------*/
FoamFile
{
    format      ascii;
    class       dictionary;
    object      physicalProperties;
}
// * * * * * * * * * * * * * * * * * * * * * * * * * * * * * * * * * * * * * //

R               8.31446261815324;

rho             2600.0;
cp              1000.0;
kr              1.00;

H1              4.76258755e+07;
n1              1.21655272e+01;
k1              4.27043658e-05;
E1              2.61501036e-02;

H2              6.67911532e+07;
n2              1.22859147e+01;
k2              2.46341613e-04;
E2              5.06901697e+03;

H3              8.50000000e+07;
n3              1.23000000e+01;
k3              2.00000000e-04;
E3              5.10000000e+03;

// ************************************************************************* //
