/*--------------------------------*- C++ -*----------------------------------*\
  =========                 |
  \\      /  F ield         | OpenFOAM: The Open Source CFD Toolbox
   \\    /   O peration     | Website:  https://openfoam.org
    \\  /    A nd           | Version:  11
     \\/     M anipulation  |
\*---------------------------------------------------------------------------*/
FoamFile
{
    version         2;
    format          ascii;
    class           dictionary;
    object          controlDict;
}
// * * * * * * * * * * * * * * * * * * * * * * * * * * * * * * * * * * * * * //

application     rhoSimpleFoam;

startFrom       latestTime;

startTime       0;

stopAt          endTime;

endTime         3000;

deltaT          1;

writeControl    timeStep;

writeInterval   100;

purgeWrite      0;

writeFormat     ascii;

writePrecision  6;

writeCompression off;

timeFormat      general;

timePrecision   6;

graphFormat     raw;

runTimeModifiable true;

functions
{
    #includeFunc    residuals(p, U, k, epsilon, h)
    #includeFunc    patchFlowRate(patch=inlet, phi)
    #includeFunc    patchFlowRate(patch=outlet, phi)
    weightAverageInlet
    {
        type            surfaceFieldValue;
        libs            ( "libfieldFunctionObjects.so" );
        enabled         yes;
        writeControl    writeTime;
        log             yes;
        writeFields     no;
        select          patch;
        patch           inlet;
        operation       average;
        weightField     phi;
        fields          ( p U T );
    }
    weightAverageOutlet
    {
        type            surfaceFieldValue;
        libs            ( "libfieldFunctionObjects.so" );
        enabled         yes;
        writeControl    writeTime;
        log             yes;
        writeFields     no;
        select          patch;
        patch           outlet;
        operation       average;
        weightField     phi;
        fields          ( p U T );
    }
}


// ************************************************************************* //
