/*--------------------------------*- C++ -*----------------------------------*\
  =========                 |
  \\      /  F ield         | OpenFOAM: The Open Source CFD Toolbox
   \\    /   O peration     | Website:  https://openfoam.org
    \\  /    A nd           | Version:  11
     \\/     M anipulation  |
\*---------------------------------------------------------------------------*/
FoamFile
{
    format      ascii;
    class       dictionary;
    object      blockMeshDict;
}
// * * * * * * * * * * * * * * * * * * * * * * * * * * * * * * * * * * * * * //

convertToMeters 1;

vertices
(
    (0.0  -0.1  -0.1)  // 0
    (2.0  -0.1  -0.1)  // 1
    (2.0   0.1  -0.1)  // 2
    (0.0   0.1  -0.1)  // 3
    (0.0  -0.1   0.1)  // 4
    (2.0  -0.1   0.1)  // 5
    (2.0   0.1   0.1)  // 6
    (0.0   0.1   0.1)  // 7
);

blocks
(
    // hex (0 1 2 3 4 5 6 7) (400 80 80) simpleGrading (1 1 1)
    // hex (0 1 2 3 4 5 6 7) (200 40 40) simpleGrading (1 1 1)
    // hex (0 1 2 3 4 5 6 7) (100 20 20) simpleGrading (1 1 1)
    hex (0 1 2 3 4 5 6 7) (200 40 40) simpleGrading (1 1 1)
);

boundary
(
    inlet
    {
        type patch;
        faces
        (
            (0 4 7 3)
        );
    }
    outlet
    {
        type patch;
        faces
        (
            (1 2 6 5)
        );
    }
    walls
    {
        type wall;
        faces
        (
            (0 1 5 4)
            (7 6 2 3)
            (4 5 6 7)
            (0 3 2 1)
        );
    }
);

// ************************************************************************* //
