/*--------------------------------*- C++ -*----------------------------------*\
  =========                 |
  \\      /  F ield         | OpenFOAM: The Open Source CFD Toolbox
   \\    /   O peration     | Website:  https://openfoam.org
    \\  /    A nd           | Version:  11
     \\/     M anipulation  |
\*---------------------------------------------------------------------------*/
FoamFile
{
    format      ascii;
    class       dictionary;
    location    "system";
    object      fvSolution;
}
// * * * * * * * * * * * * * * * * * * * * * * * * * * * * * * * * * * * * * //

solvers
{
    "p.*"
    {
        solver           GAMG;
        smoother         DICGaussSeidel;
        tolerance        0;
        relTol           0.05;
        maxIter          50;
    }

    Phi
    {
        $p;
    }

    "(U|Yi|h|e|k|epsilon|omega).*"
    {
        solver          smoothSolver;
        smoother        GaussSeidel;
        tolerance       0;
        relTol          0.1;
        maxIter         20;
    }
}

potentialFlow
{
    nNonOrthogonalCorrectors 10;
}

PIMPLE
{
    transonic                no;
    nOuterCorrectors         1;
    nCorrectors              2;
    nNonOrthogonalCorrectors 0;
    momentumPredictor        yes;

    maxCo                    0.5;
    rDeltaTSmoothingCoeff    0.5;
    alphaTemp                1;
    maxDeltaT                1;
}

relaxationFactors
{
    fields
    {
        p               0.3;
        rho             1;
    }

    equations
    {
        U               0.7;
        h               0.7;
        ".*"            0.7;
    }
}

// ************************************************************************* //
