/*--------------------------------*- C++ -*----------------------------------*\
  =========                 |
  \\      /  F ield         | OpenFOAM: The Open Source CFD Toolbox
   \\    /   O peration     | Website:  https://openfoam.org
    \\  /    A nd           | Version:  11
     \\/     M anipulation  |
\*---------------------------------------------------------------------------*/
FoamFile
{
    format      ascii;
    class       dictionary;
    object      controlDict;
}
// * * * * * * * * * * * * * * * * * * * * * * * * * * * * * * * * * * * * * //

application        foamRun;

solver             incompressibleDenseParticleFluid

startFrom          latestTime;

startTime          0;

stopAt             endTime;

endTime            30;

deltaT             1.0e-04;

writeControl       adjustableRunTime;

writeInterval      0.2;

purgeWrite         0;

writeFormat        binary;

writePrecision     12;

writeCompression   off;

timeFormat         fixed;

timePrecision      6;

runTimeModifiable  true;

adjustTimeStep     yes;

maxCo              0.7;

maxDeltaT          0.0001;

functions
{
    #includeFunc residuals(p, U.air, omega.air, k.air, cloud:alpha)

    #includeFunc patchAverage(patch=inlet, fields=( p ))

    #includeFunc patchFlowRate(patch=inlet,          phi.air, cloud:massFlux)

    #includeFunc patchFlowRate(patch=outlet-screw-1, phi.air, cloud:massFlux)

    #includeFunc patchFlowRate(patch=outlet-screw-2, phi.air, cloud:massFlux)

    #includeFunc patchFlowRate(patch=outlet-cyclone, phi.air, cloud:massFlux)

    #includeFunc fieldAverage(U.air, alpha.air, p)
    
    #includeFunc yPlus(phase=air)
}

OptimisationSwitches
{
    fileHandler collated;
}

// ************************************************************************* //
