/*--------------------------------*- C++ -*----------------------------------*\
  =========                 |
  \\      /  F ield         | OpenFOAM: The Open Source CFD Toolbox
   \\    /   O peration     | Website:  https://openfoam.org
    \\  /    A nd           | Version:  11
     \\/     M anipulation  |
\*---------------------------------------------------------------------------*/
FoamFile
{
    version     2.0;
    format      ascii;
    class       dictionary;
    object      fvSchemes;
}
// * * * * * * * * * * * * * * * * * * * * * * * * * * * * * * * * * * * * * //

ddtSchemes
{
    default             steadyState;
}

gradSchemes
{
    default             Gauss linear;
}

divSchemes
{
    default             none;
    energy              Gauss linearUpwind limited;
    turbulence          Gauss linearUpwind limited;

    div(phi,U)          Gauss linearUpwind limited;
    div(phi,(p|rho))    Gauss linearUpwind limited;

    div(phi,K)          $energy;
    div(phi,e)          $energy;
    div(phi,h)          $energy;

    div(phi,omega)      $turbulence;
    div(phi,epsilon)    $turbulence;
    div(phi,k)          $turbulence;
}

laplacianSchemes
{
    default         Gauss linear corrected;
}

interpolationSchemes
{
    default         linear;
}

snGradSchemes
{
    default         corrected;
}


// ************************************************************************* //
