/*--------------------------------*- C++ -*----------------------------------*\
  =========                 |
  \\      /  F ield         | OpenFOAM: The Open Source CFD Toolbox
   \\    /   O peration     | Website:  https://openfoam.org
    \\  /    A nd           | Version:  11
     \\/     M anipulation  |
\*---------------------------------------------------------------------------*/
FoamFile
{
    version     2.0;
    format      ascii;
    class       dictionary;
    object      fvSolution;
}
// * * * * * * * * * * * * * * * * * * * * * * * * * * * * * * * * * * * * * //

solvers
{
    p
    {
        solver          GAMG;
        tolerance       1e-08;
        relTol          0.05;
        smoother        GaussSeidel;
    }

    Phi
    {
        $p;
    }

    U
    {
        solver          smoothSolver;
        smoother        symGaussSeidel;
        tolerance       1.0e-07;
        relTol          0.1;
    }

    "(e|h|k|omega|epsilon)"
    {
        solver          smoothSolver;
        smoother        symGaussSeidel;
        tolerance       1.0e-07;
        relTol          0.1;
    }
}

potentialFlow
{
    nNonOrthogonalCorrectors 10;
}

SIMPLE
{
    nUCorrectors             2;
    nNonOrthogonalCorrectors 0;

    consistent yes;

    residualControl
    {
        p                   1.0e-05;
        Ux                  1.0e-06;
        Uy                  1.0e-06;
        "(e|h)"             1.0e-07;
        "(k|omega|epsilon)" 1.0e-05;
    }
}

relaxationFactors
{
    fields
    {
        p               0.3;
    }
    equations
    {
        U               0.7;
        e               0.8;
        h               0.8;
        k               0.9;
        omega           0.9;
        epsilon         0.9;
    }
}

cache
{
    grad(U);
}

// ************************************************************************* //
